STAAD SPACE
START JOB INFORMATION
ENGINEER DATE 25-Aug-25
END JOB INFORMATION
INPUT WIDTH 79
UNIT METER KN
JOINT COORDINATES
1 0 0 0; 2 32.0001 0 0; 3 0 0 6.00001; 4 32.0001 0 6.00001; 5 0 0 3.00001;
6 32.0001 0 3.00001; 7 2 0 0; 8 2 0 6.00001; 9 2 0 3.00001; 10 4.00001 0 0;
11 4.00001 0 6.00001; 12 4.00001 0 3.00001; 13 6.00001 0 0;
14 6.00001 0 6.00001; 15 6.00001 0 3.00001; 16 8.00002 0 0;
17 8.00002 0 6.00001; 18 8.00002 0 3.00001; 19 10 0 0; 20 10 0 6.00001;
21 10 0 3.00001; 22 12 0 0; 23 12 0 6.00001; 24 12 0 3.00001; 25 14 0 0;
26 14 0 6.00001; 27 14 0 3.00001; 28 16 0 0; 29 16 0 6.00001; 30 16 0 3.00001;
31 18 0 0; 32 18 0 6.00001; 33 18 0 3.00001; 34 20 0 0; 35 20 0 6.00001;
36 20 0 3.00001; 37 22 0 0; 38 22 0 6.00001; 39 22 0 3.00001; 40 24.0001 0 0;
41 24.0001 0 6.00001; 42 24.0001 0 3.00001; 43 26.0001 0 0;
44 26.0001 0 6.00001; 45 26.0001 0 3.00001; 46 28.0001 0 0;
47 28.0001 0 6.00001; 48 28.0001 0 3.00001; 49 30.0001 0 0;
50 30.0001 0 6.00001; 51 30.0001 0 3.00001; 52 16 -12 0; 53 16 -12 6.00001;
54 0 -12 0; 55 32.0001 -12 0; 56 0 -12 6.00001; 57 32.0001 -12 6.00001;
58 16 4.00001 0; 59 16 4.00001 6.00001; 60 16 4.50001 0; 61 16 4.50001 6.00001;
62 16 5.00001 0; 63 16 5.00001 6.00001; 64 16 5.50001 0; 65 16 5.50001 6.00001;
66 16 6.00001 0; 67 16 6.00001 6.00001; 68 16 6.50001 0; 69 16 6.50001 6.00001;
70 16 7.00001 0; 71 16 7.00001 6.00001; 72 16 7.50002 0; 73 16 7.50002 6.00001;
74 16 8.00002 0; 75 16 8.00002 6.00001; 76 64.0001 0 0; 77 64.0001 0 6.00001;
78 64.0001 0 3.00001; 79 62.0001 0 0; 80 62.0001 0 6.00001;
# ... 25 like lines cut
MEMBER INCIDENCES
1 3 8; 2 1 7; 3 1 5; 4 2 6; 5 5 3; 6 6 4; 7 7 10; 8 8 11; 9 5 9; 10 7 9;
11 9 8; 12 10 13; 13 11 14; 14 9 12; 15 10 12; 16 12 11; 17 13 16; 18 14 17;
19 12 15; 20 13 15; 21 15 14; 22 16 19; 23 17 20; 24 15 18; 25 16 18; 26 18 17;
27 19 22; 28 20 23; 29 18 21; 30 19 21; 31 21 20; 32 22 25; 33 23 26; 34 21 24;
35 22 24; 36 24 23; 37 25 28; 38 26 29; 39 24 27; 40 25 27; 41 27 26; 42 28 31;
43 29 32; 44 27 30; 45 28 30; 46 30 29; 47 31 34; 48 32 35; 49 30 33; 50 31 33;
51 33 32; 52 34 37; 53 35 38; 54 33 36; 55 34 36; 56 36 35; 57 37 40; 58 38 41;
59 36 39; 60 37 39; 61 39 38; 62 40 43; 63 41 44; 64 39 42; 65 40 42; 66 42 41;
67 43 46; 68 44 47; 69 42 45; 70 43 45; 71 45 44; 72 46 49; 73 47 50; 74 45 48;
75 46 48; 76 48 47; 77 49 2; 78 50 4; 79 48 51; 80 49 51; 81 51 50; 82 51 6;
83 28 52; 84 29 53; 85 1 54; 86 2 55; 87 3 56; 88 4 57; 89 28 58; 90 29 59;
91 58 60; 92 59 61; 93 60 62; 94 61 63; 95 62 64; 96 63 65; 97 64 66; 98 65 67;
99 66 68; 100 67 69; 101 68 70; 102 69 71; 103 70 72; 104 71 73; 105 72 74;
106 73 75; 107 74 1; 108 72 7; 109 70 10; 110 68 13; 111 66 16; 112 64 19;
113 60 25; 114 58 62; 115 62 22; 116 75 3; 117 73 8; 118 71 11; 119 69 14;
120 67 17; 121 65 20; 122 63 23; 123 61 26; 124 74 2; 125 72 49; 126 70 46;
127 68 43; 128 66 40; 129 64 37; 130 60 31; 131 62 34; 132 75 4; 133 73 50;
134 71 47; 135 69 44; 136 67 41; 137 65 38; 138 63 35; 139 61 32; 140 77 80;
141 76 79; 142 76 78; 143 78 77; 144 79 82; 145 80 83; 146 78 81; 147 79 81;
148 81 80; 149 82 85; 150 83 86; 151 81 84; 152 82 84; 153 84 83; 154 85 88;
# ... 20 like lines cut
ELEMENT INCIDENCES SHELL
275 1 7 9 5; 276 9 8 3 5; 277 7 10 12 9; 278 12 11 8 9; 279 10 13 15 12;
280 15 14 11 12; 281 13 16 18 15; 282 18 17 14 15; 283 16 19 21 18;
284 21 20 17 18; 285 19 22 24 21; 286 24 23 20 21; 287 22 25 27 24;
288 27 26 23 24; 289 25 28 30 27; 290 30 29 26 27; 291 28 31 33 30;
292 33 32 29 30; 293 31 34 36 33; 294 36 35 32 33; 295 34 37 39 36;
296 39 38 35 36; 297 37 40 42 39; 298 42 41 38 39; 299 40 43 45 42;
300 45 44 41 42; 301 43 46 48 45; 302 48 47 44 45; 303 46 49 51 48;
304 51 50 47 48; 305 49 2 6 51; 306 6 4 50 51; 307 2 121 123 6;
308 123 122 4 6; 309 121 118 120 123; 310 120 119 122 123; 311 118 115 117 120;
312 117 116 119 120; 313 115 112 114 117; 314 114 113 116 117;
315 112 109 111 114; 316 111 110 113 114; 317 109 106 108 111;
318 108 107 110 111; 319 106 103 105 108; 320 105 104 107 108;
321 103 100 102 105; 322 102 101 104 105; 323 100 97 99 102; 324 99 98 101 102;
325 97 94 96 99; 326 96 95 98 99; 327 94 91 93 96; 328 93 92 95 96;
329 91 88 90 93; 330 90 89 92 93; 331 88 85 87 90; 332 87 86 89 90;
333 85 82 84 87; 334 84 83 86 87; 335 82 79 81 84; 336 81 80 83 84;
337 79 76 78 81; 338 78 77 80 81;
ELEMENT PROPERTY
275 TO 338 THICKNESS 0.135
DEFINE MATERIAL START
ISOTROPIC CONCRETE
E 2.17184e+07
POISSON 0.17
DENSITY 23.5615
ALPHA 5.5e-06
DAMP 0.05
G 9.28137e+06
TYPE CONCRETE
STRENGTH FCU 27578.9
ISOTROPIC STEEL
E 1.99947e+08
POISSON 0.3
DENSITY 76.8191
ALPHA 6.5e-06
DAMP 0.03
G 7.7221e+07
TYPE STEEL
STRENGTH RY 1.5 RT 1.2
ISOTROPIC BFRP
E 8.5e+07
POISSON 0.28
DENSITY 26
ALPHA 4.44e-06
DAMP 0.02
G 3.3465e+07
ISOTROPIC CFRP
E 1.45e+08
POISSON 0.28
DENSITY 15.7
ALPHA 2e-06
DAMP 0.02
G 5.66e+07
ISOTROPIC GFRP
E 4e+07
POISSON 0.28
DENSITY 19.62
ALPHA 1e-05
DAMP 0.02
G 1.5556e+07
ISOTROPIC AFRP
E 7e+07
POISSON 0.3
DENSITY 13.734
ALPHA 2.78e-06
DAMP 0.02
G 2.6923e+07
ISOTROPIC STEEL_TENDON
E 2e+08
POISSON 0.3
DENSITY 77.005
ALPHA 6.67e-06
DAMP 0.01
G 7.6923e+07
END DEFINE MATERIAL
MEMBER PROPERTY
83 TO 88 220 TO 223 PRIS YD 1
1 TO 82 140 TO 219 PRIS YD 0.5 ZD 0.5
89 TO 106 114 224 TO 241 249 PRIS YD 0.5 ZD 0.5
107 TO 113 115 TO 139 242 TO 248 250 TO 274 PRIS YD 0.089
CONSTANTS
MATERIAL CONCRETE MEMB 1 TO 88 140 TO 223 275 TO 338
MATERIAL STEEL MEMB 89 TO 139 224 TO 274
SUPPORTS
52 TO 57 124 TO 127 FIXED
DEFINE MOVING LOAD
TYPE 1 LOAD 10 10 10
DIST 2 2 WID 1.8
DEFINE IS1893 2016 LOAD
ZONE 0.24 RF 5 I 1 SS 1 ST 1 DM 0.05
SELFWEIGHT 1 
DEFINE WIND LOAD
TYPE 1 WIND 1
<! STAAD PRO GENERATED DATA DO NOT MODIFY !!!
IS875-2015:PARAMS 0 0 0 0.000 0.000 5.000 0 50.000 0 1.000 0 0 1.000 2 1.000 -
1.000 0 0.000 0.000 0.000 0 0 0 1.000 0 0 0.200 1.000 1.000 1.000 1.000
!> END GENERATED DATA BLOCK
INT 0 1 1.5 2 HEIG  0  5  10  20
EXP 1 JOINT 1 TO 145
CUT OFF MODE SHAPE 5
LOAD 2 LOADTYPE Seismic-H  TITLE EQX+
1893 LOAD X 1
LOAD 3 LOADTYPE Seismic-H  TITLE EQX-
1893 LOAD X -1
LOAD 4 LOADTYPE Seismic-H  TITLE EQZ+
1893 LOAD Z 1
LOAD 5 LOADTYPE Seismic-H  TITLE EQZ-
1893 LOAD Z -1
LOAD 1 LOADTYPE Dead  TITLE DL
SELFWEIGHT Y -1 
MEMBER LOAD
1 TO 82 140 TO 219 UNI GY 6
LOAD 6 LOADTYPE Wind  TITLE WLX+
WIND LOAD X 1 TYPE 1
LOAD 7 LOADTYPE Wind  TITLE WLX-
WIND LOAD -X 1 TYPE 1
LOAD 8 LOADTYPE Wind  TITLE WLZ+
WIND LOAD Z 1 TYPE 1
LOAD 9 LOADTYPE Wind  TITLE WLZ-
WIND LOAD -Z 1 TYPE 1
LOAD GENERATION 73 ADD LOAD 1
TYPE 1 -4 0 1.8 XINC 1
LOAD 83 LOADTYPE Dead  TITLE NATURAL FREQUENCY
SELFWEIGHT X 1 
SELFWEIGHT Y -1 
SELFWEIGHT Z 1 
MODAL CALCULATION REQUESTED
LOAD COMB 84 COMB - 1.5 DEAD + 1.5 DEAD
1 1.5 83 1.5 
LOAD COMB 85 COMB - 1.2 DEAD + 1.2 DEAD + 1.2 WIND (1)
1 1.2 83 1.2 6 1.2 
LOAD COMB 86 COMB - 1.2 DEAD + 1.2 DEAD + 1.2 WIND (2)
1 1.2 83 1.2 7 1.2 
LOAD COMB 87 COMB - 1.2 DEAD + 1.2 DEAD + 1.2 WIND (3)
1 1.2 83 1.2 8 1.2 
LOAD COMB 88 COMB - 1.2 DEAD + 1.2 DEAD + 1.2 WIND (4)
1 1.2 83 1.2 9 1.2 
LOAD COMB 89 COMB - 1.2 DEAD + 1.2 DEAD + -1.2 WIND (1)
1 1.2 83 1.2 6 -1.2 
LOAD COMB 90 COMB - 1.2 DEAD + 1.2 DEAD + -1.2 WIND (2)
1 1.2 83 1.2 7 -1.2 
LOAD COMB 91 COMB - 1.2 DEAD + 1.2 DEAD + -1.2 WIND (3)
1 1.2 83 1.2 8 -1.2 
LOAD COMB 92 COMB - 1.2 DEAD + 1.2 DEAD + -1.2 WIND (4)
1 1.2 83 1.2 9 -1.2 
LOAD COMB 93 COMB - 1.2 DEAD + 1.2 DEAD + 1.2 SEISMIC-H (1)
1 1.2 83 1.2 2 1.2 
LOAD COMB 94 COMB - 1.2 DEAD + 1.2 DEAD + 1.2 SEISMIC-H (2)
1 1.2 83 1.2 3 1.2 
LOAD COMB 95 COMB - 1.2 DEAD + 1.2 DEAD + 1.2 SEISMIC-H (3)
1 1.2 83 1.2 4 1.2 
LOAD COMB 96 COMB - 1.2 DEAD + 1.2 DEAD + 1.2 SEISMIC-H (4)
1 1.2 83 1.2 5 1.2 
LOAD COMB 97 COMB - 1.2 DEAD + 1.2 DEAD + -1.2 SEISMIC-H (1)
1 1.2 83 1.2 2 -1.2 
LOAD COMB 98 COMB - 1.2 DEAD + 1.2 DEAD + -1.2 SEISMIC-H (2)
1 1.2 83 1.2 3 -1.2 
LOAD COMB 99 COMB - 1.2 DEAD + 1.2 DEAD + -1.2 SEISMIC-H (3)
1 1.2 83 1.2 4 -1.2 
LOAD COMB 100 COMB - 1.2 DEAD + 1.2 DEAD + -1.2 SEISMIC-H (4)
1 1.2 83 1.2 5 -1.2 
LOAD COMB 101 COMB - 1.5 DEAD + 1.5 DEAD + 1.5 WIND (1)
1 1.5 83 1.5 6 1.5 
LOAD COMB 102 COMB - 1.5 DEAD + 1.5 DEAD + 1.5 WIND (2)
1 1.5 83 1.5 7 1.5 
LOAD COMB 103 COMB - 1.5 DEAD + 1.5 DEAD + 1.5 WIND (3)
1 1.5 83 1.5 8 1.5 
LOAD COMB 104 COMB - 1.5 DEAD + 1.5 DEAD + 1.5 WIND (4)
1 1.5 83 1.5 9 1.5 
LOAD COMB 105 COMB - 1.5 DEAD + 1.5 DEAD + -1.5 WIND (1)
1 1.5 83 1.5 6 -1.5 
LOAD COMB 106 COMB - 1.5 DEAD + 1.5 DEAD + -1.5 WIND (2)
1 1.5 83 1.5 7 -1.5 
LOAD COMB 107 COMB - 1.5 DEAD + 1.5 DEAD + -1.5 WIND (3)
1 1.5 83 1.5 8 -1.5 
LOAD COMB 108 COMB - 1.5 DEAD + 1.5 DEAD + -1.5 WIND (4)
1 1.5 83 1.5 9 -1.5 
LOAD COMB 109 COMB - 1.5 DEAD + 1.5 DEAD + 1.5 SEISMIC-H (1)
1 1.5 83 1.5 2 1.5 
LOAD COMB 110 COMB - 1.5 DEAD + 1.5 DEAD + 1.5 SEISMIC-H (2)
1 1.5 83 1.5 3 1.5 
LOAD COMB 111 COMB - 1.5 DEAD + 1.5 DEAD + 1.5 SEISMIC-H (3)
1 1.5 83 1.5 4 1.5 
LOAD COMB 112 COMB - 1.5 DEAD + 1.5 DEAD + 1.5 SEISMIC-H (4)
1 1.5 83 1.5 5 1.5 
LOAD COMB 113 COMB - 1.5 DEAD + 1.5 DEAD + -1.5 SEISMIC-H (1)
1 1.5 83 1.5 2 -1.5 
LOAD COMB 114 COMB - 1.5 DEAD + 1.5 DEAD + -1.5 SEISMIC-H (2)
1 1.5 83 1.5 3 -1.5 
LOAD COMB 115 COMB - 1.5 DEAD + 1.5 DEAD + -1.5 SEISMIC-H (3)
1 1.5 83 1.5 4 -1.5 
LOAD COMB 116 COMB - 1.5 DEAD + 1.5 DEAD + -1.5 SEISMIC-H (4)
1 1.5 83 1.5 5 -1.5 
LOAD COMB 117 COMB - 0.9 DEAD + 0.9 DEAD + 1.5 WIND (1)
1 0.9 83 0.9 6 1.5 
LOAD COMB 118 COMB - 0.9 DEAD + 0.9 DEAD + 1.5 WIND (2)
1 0.9 83 0.9 7 1.5 
LOAD COMB 119 COMB - 0.9 DEAD + 0.9 DEAD + 1.5 WIND (3)
1 0.9 83 0.9 8 1.5 
LOAD COMB 120 COMB - 0.9 DEAD + 0.9 DEAD + 1.5 WIND (4)
1 0.9 83 0.9 9 1.5 
LOAD COMB 121 COMB - 0.9 DEAD + 0.9 DEAD + -1.5 WIND (1)
1 0.9 83 0.9 6 -1.5 
LOAD COMB 122 COMB - 0.9 DEAD + 0.9 DEAD + -1.5 WIND (2)
1 0.9 83 0.9 7 -1.5 
LOAD COMB 123 COMB - 0.9 DEAD + 0.9 DEAD + -1.5 WIND (3)
1 0.9 83 0.9 8 -1.5 
LOAD COMB 124 COMB - 0.9 DEAD + 0.9 DEAD + -1.5 WIND (4)
1 0.9 83 0.9 9 -1.5 
LOAD COMB 125 COMB - 0.9 DEAD + 0.9 DEAD + 1.5 SEISMIC-H (1)
1 0.9 83 0.9 2 1.5 
LOAD COMB 126 COMB - 0.9 DEAD + 0.9 DEAD + 1.5 SEISMIC-H (2)
1 0.9 83 0.9 3 1.5 
LOAD COMB 127 COMB - 0.9 DEAD + 0.9 DEAD + 1.5 SEISMIC-H (3)
1 0.9 83 0.9 4 1.5 
LOAD COMB 128 COMB - 0.9 DEAD + 0.9 DEAD + 1.5 SEISMIC-H (4)
1 0.9 83 0.9 5 1.5 
LOAD COMB 129 COMB - 0.9 DEAD + 0.9 DEAD + -1.5 SEISMIC-H (1)
1 0.9 83 0.9 2 -1.5 
LOAD COMB 130 COMB - 0.9 DEAD + 0.9 DEAD + -1.5 SEISMIC-H (2)
1 0.9 83 0.9 3 -1.5 
LOAD COMB 131 COMB - 0.9 DEAD + 0.9 DEAD + -1.5 SEISMIC-H (3)
1 0.9 83 0.9 4 -1.5 
LOAD COMB 132 COMB - 0.9 DEAD + 0.9 DEAD + -1.5 SEISMIC-H (4)
1 0.9 83 0.9 5 -1.5 
PERFORM ANALYSIS
PERFORM ANALYSIS PRINT ALL
PARAMETER 1
CODE IS800 LSD
TRACK 2 MEMB 107 TO 113 115 TO 139 242 TO 248 250 TO 274
START CONCRETE DESIGN
CODE INDIAN
FYMAIN 500000 MEMB 1 TO 88 140 TO 223
MAXMAIN 20 MEMB 1 TO 88 140 TO 223
MAXSEC 12 MEMB 1 TO 88 140 TO 223
TRACK 2 MEMB 1 TO 88 140 TO 223
FC 30000 MEMB 1 TO 88 140 TO 223
END CONCRETE DESIGN
PERFORM ANALYSIS PRINT ALL
PERFORM ANALYSIS PRINT ALL
PERFORM ANALYSIS PRINT ALL
PERFORM ANALYSIS PRINT ALL
PERFORM ANALYSIS PRINT ALL
PERFORM ANALYSIS PRINT ALL
PERFORM ANALYSIS PRINT ALL
PERFORM ANALYSIS PRINT ALL
PARAMETER 3
CODE INDIAN
FYLD 249997 MEMB 259
CHECK CODE ALL
PARAMETER 4
CODE INDIAN
FIXED GROUP
PARAMETER 5
CODE INDIAN
GROUP MEMB 1 TO 274 
PARAMETER 6
CODE INDIAN
STEEL MEMBER TAKE OFF ALL
PARAMETER 7
CODE INDIAN
SELECT ALL
PARAMETER 8
CODE INDIAN
SELECT OPTIMIZED
PARAMETER 9
CODE INDIAN
STEEL TAKE OFF ALL
PERFORM ANALYSIS
PERFORM ANALYSIS PRINT ALL
PERFORM CABLE ANALYSIS PRINT ALL
PARAMETER 10
CODE INDIAN
FYLD 249997 ALL
FYLD 249997 ALL
NSF 1 ALL
CHECK CODE ALL
PARAMETER 11
CODE INDIAN
FIXED GROUP
PARAMETER 12
CODE INDIAN
GROUP MEMB 1 TO 274 
PARAMETER 13
CODE INDIAN
STEEL MEMBER TAKE OFF ALL
PARAMETER 14
CODE INDIAN
SELECT ALL
PARAMETER 15
CODE INDIAN
SELECT OPTIMIZED
PARAMETER 16
CODE INDIAN
STEEL TAKE OFF ALL
PERFORM ANALYSIS PRINT ALL
PARAMETER 17
CODE AISC UNIFIED 2016
NSF 1 ALL
FYLD 248210 ALL
CHECK CODE ALL
PARAMETER 18
CODE AISC UNIFIED 2016
FIXED GROUP
PARAMETER 19
CODE AISC UNIFIED 2016
STEEL MEMBER TAKE OFF ALL
PERFORM ANALYSIS PRINT ALL
PERFORM ANALYSIS PRINT ALL
PERFORM ANALYSIS PRINT ALL
PERFORM ANALYSIS PRINT ALL
PERFORM ANALYSIS PRINT ALL
PERFORM ANALYSIS PRINT ALL
PERFORM ANALYSIS PRINT ALL
PERFORM ANALYSIS PRINT ALL
PERFORM ANALYSIS PRINT LOAD DATA
PERFORM ANALYSIS PRINT ALL
PERFORM ANALYSIS PRINT ALL
PERFORM ANALYSIS PRINT ALL
PERFORM ANALYSIS PRINT ALL
PERFORM ANALYSIS PRINT ALL
PERFORM ANALYSIS PRINT ALL
DEFINE ENVELOPE
10 TO 82 ENVELOPE 1
END DEFINE ENVELOPE
PERFORM ANALYSIS PRINT ALL
PERFORM ANALYSIS PRINT ALL
PERFORM ANALYSIS PRINT ALL
PERFORM ANALYSIS PRINT ALL
PERFORM ANALYSIS PRINT ALL
PERFORM ANALYSIS PRINT ALL
PERFORM ANALYSIS PRINT ALL
PERFORM ANALYSIS PRINT ALL
PERFORM ANALYSIS PRINT ALL
PERFORM ANALYSIS PRINT ALL
PERFORM ANALYSIS PRINT ALL
PERFORM ANALYSIS PRINT ALL
PERFORM ANALYSIS PRINT ALL
PERFORM ANALYSIS PRINT ALL
PERFORM ANALYSIS PRINT ALL
FINISH
